30
-85.60671618096 , 
  C -1.85839224  0.38551478  0.07707628
 Cl -0.49649613 -0.12356816  1.08807402
 Cl -1.35342469  1.67006458 -1.02728616
  H -2.20665253 -0.46757924 -0.51100937
 Cl -3.19192616  0.93660978  1.09446558
  C  3.59708987  3.17576162 -0.03981756
 Cl  2.94199955  4.61351461 -0.83607429
 Cl  2.97614572  3.05408591  1.61209235
 Cl  3.17171819  1.72348205 -0.95526215
  H  4.68567809  3.26057708 -0.00143393
  C  4.01151541 -2.64216126 -0.06050234
 Cl  5.32099481 -1.68934276  0.65004854
 Cl  3.58689530 -3.99019587  1.00124678
 Cl  2.59839493 -1.61437978 -0.34099030
  H  4.35217182 -3.04595057 -1.01675266
  C -2.12617817 -3.56795689  0.00554427
  H -2.07721463 -2.55707696  0.38925220
  H -3.15739445 -3.82779767 -0.19832686
  H -1.54539010 -3.64203603 -0.90546825
  H -1.72120031 -4.24556811  0.74611345
  C -7.15424159 -0.32832458 -0.07174444
 Cl -7.45698927  1.21021798 -0.89449960
 Cl -7.32254543 -0.13014224  1.67924020
  H -7.88582990 -1.06283721 -0.41639112
 Cl -5.53867639 -0.91784782 -0.46538162
  C -3.85604922  4.17960335 -0.10377147
 Cl -5.05328929  5.38958229  0.37621025
  H -4.28277272  3.18445276  0.04318939
 Cl -3.44222073  4.37247787 -1.81247081
 Cl -2.40730653  4.32685802  0.89462665