24
       -565.10975589 , 
  C -1.43814268 -2.13744182 -1.82338511
  C -1.73973542 -2.99407292 -0.73726473
  C -1.65880565 -1.12800265  0.84368600
  H -1.35663896 -2.53612159 -2.83046967
  H -2.08034864 -3.16451821  1.40589422
  C  1.63221474  1.88758241  1.80489662
  C -1.35789102 -0.30659242 -0.27334595
  C -1.84924716 -2.49443303  0.58285905
  C -1.23938831 -0.76382810 -1.61121830
  H -1.88918228 -4.05492283 -0.92018926
  H -1.73027023 -0.71304234  1.84620121
  H -1.00114664 -0.07966504 -2.42207660
  N -1.15612768  1.08793152 -0.03188041
  C  2.03226197  2.20673283 -0.60303753
  C  1.94073605  0.80908613 -0.81508041
  H  2.07610211  0.38911281 -1.80307327
  N -0.99971713  2.19003128  0.15865662
  H  1.36910480 -0.17510191  2.45454871
  H  1.53194745  2.30864133  2.79701774
  C  1.70247708 -0.00128890  0.30799178
  H  1.96375532  3.80414222  0.85568134
  H  2.23532025  2.86944316 -1.43441037
  C  1.53713077  0.48689541  1.61524225
  C  1.87992026  2.73660528  0.70021499