12
 energy: -15.879640597364 gnorm: 0.000237164759 xtb: 6.5.0 (746241f)
C           -0.17535923802837       -1.37353325766740        0.00011605463982
C            1.10184257002157       -0.83861064229595        0.00031925180412
C            1.27718212314734        0.53488580299037        0.00028647836730
C            0.17532455845877        1.37351688322389        0.00015307787029
C           -1.10182770154280        0.83861581510199        0.00000394576157
C           -1.27717483735115       -0.53493389286274       -0.00007301629372
H           -0.31213529082283       -2.44529523086158        0.00002263266330
H            1.96157107680940       -1.49302050638903        0.00003668126120
H            2.27374100333788        0.95232341113495        0.00010374131468
H            0.31220186752667        2.44526670709631       -0.00000537668237
H           -1.96161893089521        1.49294346901402       -0.00005576898298
H           -2.27377122828759       -0.95227994685438       -0.00004561142746
