8
 energy: -7.336370674717 gnorm: 0.000034350096 xtb: 6.7.0 (08769fc)
C           -0.76072348186203        0.00001485305876       -0.00000266686183
C            0.76072348186203       -0.00001485305958        0.00000266686183
H           -1.14365005268644        0.65465639453244        0.77978727948467
H           -1.14365016228551        0.34801978209273       -0.95683096642655
H           -1.14367056702898       -1.00261621673143        0.17703304238554
H            1.14365016228518       -0.34801978209196        0.95683096642632
H            1.14367056702893        1.00261621673169       -0.17703304238498
H            1.14365005268682       -0.65465639453264       -0.77978727948499
