6
       -115.34204430 , 
  O     0.71889428     0.00791803     0.00276782
  C    -0.70547720    -0.01580396    -0.00532536
  H    -1.11290771    -0.76780159     0.68197890
  H    -1.11283786    -0.19579018    -1.00809522
  H    -1.02960800     0.96998155     0.32829952
  H     1.02603649    -0.86400386    -0.29252568