!6-31g(d,p) norijcosx 
        !moread
            %moinp "/home/johannes/tmp/288_top/qm_calcs/calculator_000.000.orca.gbw" 

        %pal nprocs 6 end
        %maxcore 807

        %tddft tda true nroots 4 donto true ntostates 1,2,3,4 iroot 1 end
        

        *xyz 0 1
        C 0.48832568 -1.31936197 0.00000049
C 1.38678971 -0.23678451 -0.00000155
C 0.89845445 1.08258254 0.00000512
C -0.48832648 1.31936177 0.00000004
C -1.38678959 0.23678542 -0.00000344
C -0.89845380 -1.08258307 0.00000148
H 0.86006683 -2.32357081 -0.00000116
H 2.44232055 -0.41702607 -0.00001023
H 1.58225662 1.90662377 -0.00000391
H -0.86000030 2.32359559 -0.00000215
H -2.44233218 0.41695824 0.00000095
H -1.58230984 -1.90657943 0.00000900
        *
        